<net version="0.13" xmlns:xsi="http://www.w3.org/2001/XMLSchema-instance" xsi:noNamespaceSchemaLocation="http://sumo.dlr.de/xsd/net_file.xsd">
	<location netOffset="-337460.07,-6164767.95" convBoundary="0.00,0.00,22726.96,16669.03" origBoundary="12.358776,55.606693,12.777461,55.794718" projParameter="+proj=utm +zone=33 +ellps=WGS84 +datum=WGS84 +units=m +no_defs"/>
	
    <edge id="153354658" from="1660636314" to="1660636311" priority="2" type="highway.service">
        <lane id="153354658_0" index="0" allow="delivery" speed="5.56" length="30.00" shape="4255.50,11951.42 4280.30,11934.54"/>
		...
    </edge>
	...
	
	<tlLogic id="103141809" type="static" programID="0" offset="0">
        <phase duration="31" state="GggrrrGGg"/>
        <phase duration="7" state="yggrrryyg"/>
        <phase duration="6" state="rGGrrrrrG"/>
        <phase duration="7" state="ryyrrrrry"/>
        <phase duration="31" state="rrrGGgGrr"/>
        <phase duration="7" state="rrryyyyrr"/>
    </tlLogic>
	...
	
	<junction id="1333855407" type="priority" x="1836.89" y="6389.11" incLanes="226440783#5_0 118080518#0_0 -226440783#6_0" intLanes=":1333855407_0_0 :1333855407_1_0 :1333855407_2_0 :1333855407_3_0 :1333855407_4_0 :1333855407_5_0 :1333855407_6_0 :1333855407_7_0 :1333855407_8_0" shape="1838.68,6393.15 1840.77,6386.99 1839.81,6384.98 1836.75,6384.05 1834.85,6385.00 1832.78,6391.16 1833.66,6393.03 1836.65,6394.19">
        <request index="0" response="000010000" foes="010010000" cont="0"/>
        <request index="1" response="000110000" foes="110110000" cont="0"/>
        <request index="2" response="001001000" foes="001001000" cont="0"/>
        <request index="3" response="000000000" foes="001000100" cont="0"/>
        <request index="4" response="000000000" foes="011000011" cont="0"/>
        <request index="5" response="000000000" foes="111000010" cont="0"/>
        <request index="6" response="000111000" foes="000111100" cont="0"/>
        <request index="7" response="000110011" foes="000110011" cont="0"/>
        <request index="8" response="000100010" foes="000100010" cont="0"/>
    </junction>
	...
	
	<connection from="-1742140#7" to="1742140#7" fromLane="0" toLane="0" via=":1658918074_2_0" dir="t" state="m"/>
	<connection from="-1519004#0" to="-28612124" fromLane="0" toLane="0" via=":1629913475_0_0" tl="1629913475" linkIndex="0" dir="r" state="o"/>
	...
</net>